data_image0
_cell_length_a       4.54244
_cell_length_b       4.6228
_cell_length_c       4.6221
_cell_angle_alpha    61.011
_cell_angle_beta     61.2276
_cell_angle_gamma    61.3124

_symmetry_space_group_name_H-M    "P 1"
_symmetry_int_tables_number       1

loop_
  _symmetry_equiv_pos_as_xyz
  'x, y, z'

loop_
  _atom_site_label
  _atom_site_occupancy
  _atom_site_fract_x
  _atom_site_fract_y
  _atom_site_fract_z
  _atom_site_thermal_displace_type
  _atom_site_B_iso_or_equiv
  _atom_site_type_symbol
  Mn1      1.0000 0.26889  0.25879  0.30411  Biso   1.000  Mn
  Sb1      1.0000 0.01812  0.01208  0.05478  Biso   1.000  Sb
  Y1       1.0000 0.51477  0.52292  0.56480  Biso   1.000  Y
