data_image0
_cell_length_a       4.65995
_cell_length_b       4.63745
_cell_length_c       4.72241
_cell_angle_alpha    59.9494
_cell_angle_beta     59.6607
_cell_angle_gamma    60.5448

_symmetry_space_group_name_H-M    "P 1"
_symmetry_int_tables_number       1

loop_
  _symmetry_equiv_pos_as_xyz
  'x, y, z'

loop_
  _atom_site_label
  _atom_site_occupancy
  _atom_site_fract_x
  _atom_site_fract_y
  _atom_site_fract_z
  _atom_site_thermal_displace_type
  _atom_site_B_iso_or_equiv
  _atom_site_type_symbol
  Ag1      1.0000 0.99942  0.99820  0.00295  Biso   1.000  Ag
  Ag2      1.0000 0.50058  0.50180  0.49705  Biso   1.000  Ag
  Mg1      1.0000 0.25000  0.25000  0.25000  Biso   1.000  Mg
  Nb1      1.0000 0.75000  0.75000  0.75000  Biso   1.000  Nb
