data_image0
_cell_length_a       4.26267
_cell_length_b       4.26802
_cell_length_c       4.26624
_cell_angle_alpha    90
_cell_angle_beta     90
_cell_angle_gamma    90

_symmetry_space_group_name_H-M    "P 1"
_symmetry_int_tables_number       1

loop_
  _symmetry_equiv_pos_as_xyz
  'x, y, z'

loop_
  _atom_site_label
  _atom_site_occupancy
  _atom_site_fract_x
  _atom_site_fract_y
  _atom_site_fract_z
  _atom_site_thermal_displace_type
  _atom_site_B_iso_or_equiv
  _atom_site_type_symbol
  C1       1.0000 0.50000  0.50000  0.50726  Biso   1.000  C
  Rb1      1.0000 0.00000  0.00000  0.99659  Biso   1.000  Rb
  Rh1      1.0000 0.00000  0.50000  0.49663  Biso   1.000  Rh
  Rh2      1.0000 0.50000  0.50000  0.00260  Biso   1.000  Rh
  Rh3      1.0000 0.50000  0.00000  0.49692  Biso   1.000  Rh
